Info: SIMULATION PARAMETERS:
Info: TIMESTEP               2
Info: NUMBER OF STEPS        0
Info: STEPS PER CYCLE        10
Info: PERIODIC CELL BASIS 1  23 0 0
Info: PERIODIC CELL BASIS 2  0 19.919 0
Info: PERIODIC CELL BASIS 3  0 0 100
Info: PERIODIC CELL CENTER   0 0 0
Info: WRAPPING WATERS AROUND PERIODIC BOUNDARIES ON OUTPUT.
Info: WRAPPING ALL CLUSTERS AROUND PERIODIC BOUNDARIES ON OUTPUT.
Info: FIRST LDB TIMESTEP     50
Info: LAST LDB TIMESTEP     -1
Info: HOM BACKGROUND SCALING 1
Info: PME BACKGROUND SCALING 1
Info: MIN ATOMS PER PATCH    40
Info: INITIAL TEMPERATURE    300
Info: CENTER OF MASS MOVING INITIALLY? NO
Info: DIELECTRIC             1
Info: EXCLUDE                SCALED ONE-FOUR
Info: 1-4 ELECTROSTATICS SCALED BY 1
Info: MODIFIED 1-4 VDW PARAMETERS WILL BE USED
Info: DCD FILENAME           MDequil.dcd
Info: DCD FREQUENCY          5000
Info: DCD FIRST STEP         5000
Info: DCD FILE WILL CONTAIN UNIT CELL DATA
Info: XST FILENAME           MDequil.xst
Info: XST FREQUENCY          5000
Info: NO VELOCITY DCD OUTPUT
Info: NO FORCE DCD OUTPUT
Info: OUTPUT FILENAME        MDequil
Info: BINARY OUTPUT FILES WILL BE USED
Info: RESTART FILENAME       MDequil.restart
Info: RESTART FREQUENCY      50000
Info: BINARY RESTART FILES WILL BE USED
Info: SWITCHING ACTIVE
Info: SWITCHING ON           10
Info: SWITCHING OFF          12
Info: PAIRLIST DISTANCE      14
Info: PAIRLIST SHRINK RATE   0.01
Info: PAIRLIST GROW RATE     0.01
Info: PAIRLIST TRIGGER       0.3
Info: PAIRLISTS PER CYCLE    2
Info: PAIRLISTS ENABLED
Info: MARGIN                 0
Info: HYDROGEN GROUP CUTOFF  2.5
Info: PATCH DIMENSION        16.5
Info: ENERGY OUTPUT STEPS    5000
Info: CROSSTERM ENERGY INCLUDED IN DIHEDRAL
Info: TIMING OUTPUT STEPS    50000
Info: PRESSURE OUTPUT STEPS  5000
Info: FIXED ATOMS ACTIVE
Info: LANGEVIN DYNAMICS ACTIVE
Info: LANGEVIN TEMPERATURE   300
Info: LANGEVIN USING BBK INTEGRATOR
Info: LANGEVIN DAMPING COEFFICIENT IS 1 INVERSE PS
Info: LANGEVIN DYNAMICS NOT APPLIED TO HYDROGENS
Info: PARTICLE MESH EWALD (PME) ACTIVE
Info: PME TOLERANCE               1e-06
Info: PME EWALD COEFFICIENT       0.257952
Info: PME INTERPOLATION ORDER     4
Info: PME GRID DIMENSIONS         24 20 108
Info: PME MAXIMUM GRID SPACING    1
Info: FULL ELECTROSTATIC EVALUATION FREQUENCY      2
Info: USING VERLET I (r-RESPA) MTS SCHEME.
Info: C1 SPLITTING OF LONG RANGE ELECTROSTATICS
Info: PLACING ATOMS IN PATCHES BY HYDROGEN GROUPS
Info: RIGID BONDS TO HYDROGEN : ALL
Info:         ERROR TOLERANCE : 1e-08
Info:          MAX ITERATIONS : 100
Info: RIGID WATER USING SETTLE ALGORITHM
Info: RANDOM NUMBER SEED     1715089438
Info: USE HYDROGEN BONDS?    NO
Info: COORDINATE PDB         ../input/system.pdb
Info: STRUCTURE FILE         ../input/system.psf
Info: PARAMETER file: CHARMM format!
Info: PARAMETERS             ../input/par_nanotubes.inp
Info: PARAMETERS             ../input/par_water_ions.inp
Info: USING ARITHMETIC MEAN TO COMBINE L-J SIGMA PARAMETERS
Info: SUMMARY OF PARAMETERS:
Info: 4 BONDS
Info: 2 ANGLES
Info: 1 DIHEDRAL
Info: 0 IMPROPER
Info: 0 CROSSTERM
Info: 16 VDW
Info: 2 VDW_PAIRS
Info: 0 NBTHOLE_PAIRS
Info: STRUCTURE SUMMARY:
Info: 2160 ATOMS
Info: 1872 BONDS
Info: 2064 ANGLES
Info: 2928 DIHEDRALS
Info: 0 IMPROPERS
Info: 0 CROSSTERMS
Info: 0 EXCLUSIONS
Info: 576 FIXED ATOMS
Info: 1584 RIGID BONDS
Info: 0 RIGID BONDS BETWEEN FIXED ATOMS
Info: 3168 DEGREES OF FREEDOM
Info: 1104 HYDROGEN GROUPS
Info: 3 ATOMS IN LARGEST HYDROGEN GROUP
Info: 1104 MIGRATION GROUPS
Info: 3 ATOMS IN LARGEST MIGRATION GROUP
Info: 576 HYDROGEN GROUPS WITH ALL ATOMS FIXED
Info: TOTAL MASS = 16430.5 amu
Info: TOTAL CHARGE = 0 e
Info: MASS DENSITY = 0.595544 g/cm^3
Info: ATOM DENSITY = 0.0471475 atoms/A^3
Info: ADDED 6144 IMPLICIT EXCLUSIONS
Info: NONBONDED TABLE R-SQUARED SPACING: 0.0625
Info: NONBONDED TABLE SIZE: 769 POINTS
Info: REMOVING COM VELOCITY -0.118882 -0.0287151 -0.0835845
Info: Updated CUDA force table with 4096 elements.
Info: Updated CUDA LJ table with 16 x 16 elements.
Info: Found 4 unique exclusion lists needing 4 bytes
TCL: Minimizing for 5000 steps
ETITLE: TS BOND ANGLE DIHED IMPRP ELECT VDW BOUNDARY MISC KINETIC TOTAL TEMP POTENTIAL TOTAL3 TEMPAVG PRESSURE GPRESSURE VOLUME PRESSAVG GPRESSAVG
ENERGY: 0 0.0000 0.0000 0.0000 0.0000 -4494.1664 476173.3904 0.0000 0.0000 0.0000 471679.2241 0.0000 471679.2241 471679.2241 0.0000 987163.2919 1159301.7593 45813.7000 987163.2919 1159301.7593
ENERGY: 1000 0.0000 0.0000 0.0000 0.0000 -7205.3897 906.0391 0.0000 0.0000 0.0000 -6299.3505 0.0000 -6299.3505 -6299.3505 0.0000 -40.6516 -9582.5767 45813.7000 -40.6516 -9582.5767
ENERGY: 2000 0.0000 0.0000 0.0000 0.0000 -7246.2100 914.7471 0.0000 0.0000 0.0000 -6331.4629 0.0000 -6331.4629 -6331.4629 0.0000 -33.0034 -9638.3988 45813.7000 -33.0034 -9638.3988
ENERGY: 3000 0.0000 0.0000 0.0000 0.0000 -7276.9727 937.9593 0.0000 0.0000 0.0000 -6339.0134 0.0000 -6339.0134 -6339.0134 0.0000 -18.9079 -9661.9385 45813.7000 -18.9079 -9661.9385
ENERGY: 4000 0.0000 0.0000 0.0000 0.0000 -7282.9940 929.5008 0.0000 0.0000 0.0000 -6353.4932 0.0000 -6353.4932 -6353.4932 0.0000 -0.5714 -9648.0103 45813.7000 -0.5714 -9648.0103
ENERGY: 5000 0.0000 0.0000 0.0000 0.0000 -7290.8657 934.3303 0.0000 0.0000 0.0000 -6356.5354 0.0000 -6356.5354 -6356.5354 0.0000 -6.3096 -9664.8745 45813.7000 -6.3096 -9664.8745
TCL: Running for 50000 steps
ETITLE: TS BOND ANGLE DIHED IMPRP ELECT VDW BOUNDARY MISC KINETIC TOTAL TEMP POTENTIAL TOTAL3 TEMPAVG PRESSURE GPRESSURE VOLUME PRESSAVG GPRESSAVG
ENERGY: 5000 0.0000 0.0000 0.0000 0.0000 -7290.8657 934.3303 0.0000 0.0000 0.0000 -6356.5354 0.0000 -6356.5354 -6356.5495 0.0000 -727.2308 -720.4453 45813.7000 -727.2308 -720.4453
ENERGY: 15000 0.0000 0.0000 0.0000 0.0000 -5567.5824 424.1655 0.0000 0.0000 916.1835 -4227.2333 291.0635 -5143.4168 -4224.2774 292.9851 -413.3648 -407.6284 45813.7000 45.4031 45.3606
ENERGY: 25000 0.0000 0.0000 0.0000 0.0000 -5500.1473 418.2783 0.0000 0.0000 940.9200 -4140.9490 298.9220 -5081.8689 -4139.6827 301.5724 -192.3717 -185.0859 45813.7000 -55.4493 -55.4322
ENERGY: 35000 0.0000 0.0000 0.0000 0.0000 -5579.9381 457.1573 0.0000 0.0000 929.9270 -4192.8538 295.4297 -5122.7808 -4190.5904 297.8853 -94.3131 -85.7917 45813.7000 -127.6408 -127.5722
ENERGY: 45000 0.0000 0.0000 0.0000 0.0000 -5548.6429 399.5597 0.0000 0.0000 955.8717 -4193.2114 303.6720 -5149.0831 -4190.3847 298.9417 -354.0867 -340.4626 45813.7000 -18.4175 -18.4436
ENERGY: 55000 0.0000 0.0000 0.0000 0.0000 -5676.5778 489.5042 0.0000 0.0000 922.8991 -4264.1745 293.1969 -5187.0736 -4261.2410 296.8737 278.6984 287.3631 45813.7000 -35.2202 -35.3202
